* Diode 1N4148 SPICE Model Data

.model 1N4148   D(Is=? N=? Rs=0 Ikf=44.17m Xti=3 Eg=1.11 Cjo=.95p
+               M=.55 Vj=.75 Fc=.5 Isr=11.07n Nr=2.088 Bv=100 Ibv=100u Tt=11.07n)