*SRC=1N4732A;DI_1N4732A;Diodes;Zener <=10V; 4.70V  1.00W   Diodes Inc.
*SYM=HZEN
.SUBCKT DI_1N4732A  1 2
*        Terminals    A   K
D1 1 2 DF
DZ 3 1 DR
VZ 2 3 3.1
.MODEL DF D ( IS=190f RS=0.620 N=1.10
+ CJO=214p VJ=0.750 M=0.330 TT=50.1n )
.MODEL DR D ( IS=17.5f RS=0.333 N=2.28 )
.ENDS